lig22
                    3D

 44 46  0  0  1  0            999 V2000
   29.2430   33.0710   42.1618 C   0  0  0  0  0  0
   28.9340   33.8697   40.8818 C   0  0  0  0  0  0
   27.5093   33.5264   40.4388 C   0  0  0  0  0  0
   29.0159   35.3773   41.1372 C   0  0  0  0  0  0
   29.8544   33.4705   39.7964 N   0  0  2  0  0  0
   31.5675   33.7697   39.7665 S   0  0  0  0  0  0
   32.0792   33.7626   41.1455 O   0  0  0  0  0  0
   32.1297   32.8545   38.7653 O   0  0  0  0  0  0
   31.7022   35.4337   39.1142 C   0  0  0  0  0  0
   31.9586   36.5041   39.9897 C   0  0  0  0  0  0
   32.0827   37.8058   39.4781 C   0  0  0  0  0  0
   32.0058   38.0559   38.0928 C   0  0  0  0  0  0
   32.2255   39.4351   37.6263 C   0  0  0  0  0  0
   31.2745   40.4428   37.9102 C   0  0  0  0  0  0
   31.4951   41.7768   37.5134 C   0  0  0  0  0  0
   32.6544   42.0829   36.7856 C   0  0  0  0  0  0
   33.1197   43.2293   36.1727 N   0  0  0  0  0  0
   34.2891   43.0532   35.5103 N   0  0  0  0  0  0
   34.6047   41.7964   35.6884 C   0  0  0  0  0  0
   35.7414   41.2279   35.1095 N   0  0  0  0  0  0
   33.6328   41.0974   36.4709 C   0  0  0  0  0  0
   33.4050   39.7772   36.9250 C   0  0  0  0  0  0
   31.7424   36.9692   37.2174 C   0  0  0  0  0  0
   31.5950   37.2143   35.5116 Cl  0  0  0  0  0  0
   31.5852   35.6630   37.7297 C   0  0  0  0  0  0
   28.4553   33.2099   42.9028 H   0  0  0  0  0  0
   30.1744   33.3827   42.6327 H   0  0  0  0  0  0
   29.3141   32.0012   41.9611 H   0  0  0  0  0  0
   27.2472   34.0294   39.5087 H   0  0  0  0  0  0
   27.4050   32.4496   40.3103 H   0  0  0  0  0  0
   26.7776   33.8303   41.1884 H   0  0  0  0  0  0
   28.8549   35.9552   40.2262 H   0  0  0  0  0  0
   28.2762   35.6989   41.8712 H   0  0  0  0  0  0
   29.9935   35.6280   41.5308 H   0  0  0  0  0  0
   29.4415   33.4771   38.8646 H   0  0  0  0  0  0
   32.0675   36.3354   41.0511 H   0  0  0  0  0  0
   32.2629   38.6246   40.1586 H   0  0  0  0  0  0
   30.3775   40.1908   38.4585 H   0  0  0  0  0  0
   30.7651   42.5409   37.7337 H   0  0  0  0  0  0
   32.6340   44.1180   36.1249 H   0  0  0  0  0  0
   35.9698   40.2514   35.2219 H   0  0  0  0  0  0
   36.4066   41.8046   34.6028 H   0  0  0  0  0  0
   34.1284   39.0092   36.6940 H   0  0  0  0  0  0
   31.3935   34.8367   37.0597 H   0  0  0  0  0  0
  1  2  1  0  0  0
  1 26  1  0  0  0
  1 27  1  0  0  0
  1 28  1  0  0  0
  2  3  1  0  0  0
  2  4  1  0  0  0
  2  5  1  0  0  0
  3 29  1  0  0  0
  3 30  1  0  0  0
  3 31  1  0  0  0
  4 32  1  0  0  0
  4 33  1  0  0  0
  4 34  1  0  0  0
  5  6  1  0  0  0
  5 35  1  0  0  0
  6  7  2  0  0  0
  6  8  2  0  0  0
  6  9  1  0  0  0
  9 10  1  0  0  0
  9 25  2  0  0  0
 10 11  2  0  0  0
 10 36  1  0  0  0
 11 12  1  0  0  0
 11 37  1  0  0  0
 12 13  1  0  0  0
 12 23  2  0  0  0
 13 14  1  0  0  0
 13 22  2  0  0  0
 14 15  2  0  0  0
 14 38  1  0  0  0
 15 16  1  0  0  0
 15 39  1  0  0  0
 16 17  1  0  0  0
 16 21  2  0  0  0
 17 18  1  0  0  0
 17 40  1  0  0  0
 18 19  2  0  0  0
 19 20  1  0  0  0
 19 21  1  0  0  0
 20 41  1  0  0  0
 20 42  1  0  0  0
 21 22  1  0  0  0
 22 43  1  0  0  0
 23 24  1  0  0  0
 23 25  1  0  0  0
 25 44  1  0  0  0
M  END
> <r_i_docking_score>
-9.99824

> <b_m_subgroup_collapsed>
0

$$$$
